ProjectFiles/HECO/DSSfiles/Backup/lines_rural_star.dss
New	Line.BB_51067432_0_1	bus1=DEV_51067434_TSF_0.1	bus2=DEV_51067434_0_1.1	Phases=1	linecode=4/0_1PH length=60 units=ft
New	Line.OH_260847_1_1	bus1=DEV_260853_TSF_1.1	bus2=DEV_260853_1_1.1	Phases=1	linecode=4/0_1PH length=60 units=ft
New	Line.OH_260847_2_1 bus1=DEV_260853_TSF_2.3	bus2=DEV_260853_2_1.3	Phases=1	linecode=4/0_1PH length=60 units=ft
New	Line.OH_260849_1_1	bus1=DEV_260852_TSF_1.1	bus2=DEV_260852_1_1.1	Phases=1	linecode=4/0_1PH length=60 units=ft
New	Line.OH_260849_2_1 bus1=DEV_260852_TSF_2.2	bus2=DEV_260852_2_1.2	Phases=1	linecode=4/0_1PH length=60 units=ft
New	Line.OH_260850_1_1	bus1=DEV_260851_TSF_1.1	bus2=DEV_260851_1_1.1	Phases=1	linecode=4/0_1PH length=60 units=ft
New	Line.OH_260850_1_2	bus1=DEV_260851_TSF_1.1	bus2=DEV_260851_1_2.1	Phases=1	linecode=4/0_1PH length=60 units=ft
New	Line.OH_260850_2_1 bus1=DEV_260851_TSF_2.3	bus2=DEV_260851_2_1.3	Phases=1	linecode=4/0_1PH length=60 units=ft
New	Line.OH_260850_2_2	bus1=DEV_260851_TSF_2.3	bus2=DEV_260851_2_2.3	Phases=1	linecode=4/0_1PH length=60 units=ft
New	Line.OH_260930_1_1	bus1=DEV_51187136_TSF_1.1	bus2=DEV_51187136_1_1.1	Phases=1	linecode=4/0_1PH length=60 units=ft
New	Line.OH_260930_1_2	bus1=DEV_51187136_TSF_1.1	bus2=DEV_51187136_1_2.1	Phases=1	linecode=4/0_1PH length=60 units=ft
New	Line.OH_260930_2_1 bus1=DEV_51187136_TSF_2.3	bus2=DEV_51187136_2_1.3	Phases=1	linecode=4/0_1PH length=60 units=ft
New	Line.OH_260930_2_2	bus1=DEV_51187136_TSF_2.3	bus2=DEV_51187136_2_2.3	Phases=1	linecode=4/0_1PH length=60 units=ft
New	Line.OH_260932_1_1	bus1=DEV_260933_TSF_1.1	bus2=DEV_260933_1_1.1	Phases=1	linecode=4/0_1PH length=60 units=ft
New	Line.OH_260932_2_1 bus1=DEV_260933_TSF_2.3	bus2=DEV_260933_2_1.3	Phases=1	linecode=4/0_1PH length=60 units=ft
New	Line.OH_260937_1_1	bus1=NODE_630695_TSF_1.1	bus2=NODE_630695_1_1.1	Phases=1	linecode=4/0_1PH length=60 units=ft
New	Line.OH_260937_2_1 bus1=NODE_630695_TSF_2.3	bus2=NODE_630695_2_1.3	Phases=1	linecode=4/0_1PH length=60 units=ft
New	Line.OH_260945_0_1	bus1=NODE_630695_TSF_0.3	bus2=NODE_630695_0_1.3	Phases=1	linecode=4/0_1PH length=60 units=ft
New	Line.OH_260945_0_2	bus1=NODE_630695_TSF_0.3	bus2=NODE_630695_0_2.3	Phases=1	linecode=4/0_1PH length=60 units=ft
New	Line.OH_260946_0_1	bus1=DEV_260949_TSF_0.1	bus2=DEV_260949_0_1.1	Phases=1	linecode=4/0_1PH length=60 units=ft
New	Line.OH_260946_0_2	bus1=DEV_260949_TSF_0.1	bus2=DEV_260949_0_2.1	Phases=1	linecode=4/0_1PH length=60 units=ft
New	Line.OH_260946_0_3	bus1=DEV_260949_TSF_0.1	bus2=DEV_260949_0_3.1	Phases=1	linecode=4/0_1PH length=60 units=ft
New	Line.OH_260946_0_4	bus1=DEV_260949_TSF_0.1	bus2=DEV_260949_0_4.1	Phases=1	linecode=4/0_1PH length=60 units=ft
New	Line.OH_260946_0_5	bus1=DEV_260949_TSF_0.1	bus2=DEV_260949_0_5.1	Phases=1	linecode=4/0_1PH length=60 units=ft
New	Line.OH_260946_0_6	bus1=DEV_260949_TSF_0.1	bus2=DEV_260949_0_6.1	Phases=1	linecode=4/0_1PH length=60 units=ft
New	Line.OH_260946_0_7	bus1=DEV_260949_TSF_0.1	bus2=DEV_260949_0_7.1	Phases=1	linecode=4/0_1PH length=60 units=ft
New	Line.OH_261400_1_1	bus1=NODE_11021972_TSF_1.1	bus2=NODE_11021972_1_1.1	Phases=1	linecode=4/0_1PH length=60 units=ft
New	Line.OH_261400_1_2	bus1=NODE_11021972_TSF_1.1	bus2=NODE_11021972_1_2.1	Phases=1	linecode=4/0_1PH length=60 units=ft
New	Line.OH_261400_2_1 bus1=NODE_11021972_TSF_2.2	bus2=NODE_11021972_2_1.2	Phases=1	linecode=4/0_1PH length=60 units=ft
New	Line.OH_261400_2_2	bus1=NODE_11021972_TSF_2.2	bus2=NODE_11021972_2_2.2	Phases=1	linecode=4/0_1PH length=60 units=ft
New	Line.OH_261479_1_1	bus1=DEV_261481_TSF_1.1	bus2=DEV_261481_1_1.1	Phases=1	linecode=4/0_1PH length=60 units=ft
New	Line.OH_261479_1_2	bus1=DEV_261481_TSF_1.1	bus2=DEV_261481_1_2.1	Phases=1	linecode=4/0_1PH length=60 units=ft
New	Line.OH_261479_1_3	bus1=DEV_261481_TSF_1.1	bus2=DEV_261481_1_3.1	Phases=1	linecode=4/0_1PH length=60 units=ft
New	Line.OH_261479_2_1 bus1=DEV_261481_TSF_2.3	bus2=DEV_261481_2_1.3	Phases=1	linecode=4/0_1PH length=60 units=ft
New	Line.OH_261479_2_2	bus1=DEV_261481_TSF_2.3	bus2=DEV_261481_2_2.3	Phases=1	linecode=4/0_1PH length=60 units=ft
New	Line.OH_261479_2_3	bus1=DEV_261481_TSF_2.3	bus2=DEV_261481_2_3.3	Phases=1	linecode=4/0_1PH length=60 units=ft
New	Line.OH_261483_1_1	bus1=DEV_261484_TSF_1.1	bus2=DEV_261484_1_1.1	Phases=1	linecode=4/0_1PH length=60 units=ft
New	Line.OH_261483_1_2	bus1=DEV_261484_TSF_1.1	bus2=DEV_261484_1_2.1	Phases=1	linecode=4/0_1PH length=60 units=ft
New	Line.OH_261483_1_3	bus1=DEV_261484_TSF_1.1	bus2=DEV_261484_1_3.1	Phases=1	linecode=4/0_1PH length=60 units=ft
New	Line.OH_261483_2_1 bus1=DEV_261484_TSF_2.2	bus2=DEV_261484_2_1.2	Phases=1	linecode=4/0_1PH length=60 units=ft
New	Line.OH_261483_2_2	bus1=DEV_261484_TSF_2.2	bus2=DEV_261484_2_2.2	Phases=1	linecode=4/0_1PH length=60 units=ft
New	Line.OH_261483_2_3	bus1=DEV_261484_TSF_2.2	bus2=DEV_261484_2_3.2	Phases=1	linecode=4/0_1PH length=60 units=ft
New	Line.OH_261486_1_1	bus1=DEV_261487_TSF_1.1	bus2=DEV_261487_1_1.1	Phases=1	linecode=4/0_1PH length=60 units=ft
New	Line.OH_261486_1_2	bus1=DEV_261487_TSF_1.1	bus2=DEV_261487_1_2.1	Phases=1	linecode=4/0_1PH length=60 units=ft
New	Line.OH_261486_1_3	bus1=DEV_261487_TSF_1.1	bus2=DEV_261487_1_3.1	Phases=1	linecode=4/0_1PH length=60 units=ft
New	Line.OH_261486_1_4	bus1=DEV_261487_TSF_1.1	bus2=DEV_261487_1_4.1	Phases=1	linecode=4/0_1PH length=60 units=ft
New	Line.OH_261486_2_1 bus1=DEV_261487_TSF_2.2	bus2=DEV_261487_2_1.2	Phases=1	linecode=4/0_1PH length=60 units=ft
New	Line.OH_261486_2_2	bus1=DEV_261487_TSF_2.2	bus2=DEV_261487_2_2.2	Phases=1	linecode=4/0_1PH length=60 units=ft
New	Line.OH_261486_2_3	bus1=DEV_261487_TSF_2.2	bus2=DEV_261487_2_3.2	Phases=1	linecode=4/0_1PH length=60 units=ft
New	Line.OH_261486_2_4	bus1=DEV_261487_TSF_2.2	bus2=DEV_261487_2_4.2	Phases=1	linecode=4/0_1PH length=60 units=ft
New	Line.OH_261488_1_1	bus1=DEV_261490_TSF_1.1	bus2=DEV_261490_1_1.1	Phases=1	linecode=4/0_1PH length=60 units=ft
New	Line.OH_261488_2_1 bus1=DEV_261490_TSF_2.3	bus2=DEV_261490_2_1.3	Phases=1	linecode=4/0_1PH length=60 units=ft
New	Line.OH_261535_0_1	bus1=DEV_261606_TSF_0.1	bus2=DEV_261606_0_1.1	Phases=1	linecode=4/0_1PH length=60 units=ft
New	Line.OH_261535_0_2	bus1=DEV_261606_TSF_0.1	bus2=DEV_261606_0_2.1	Phases=1	linecode=4/0_1PH length=60 units=ft
New	Line.OH_261535_0_3	bus1=DEV_261606_TSF_0.1	bus2=DEV_261606_0_3.1	Phases=1	linecode=4/0_1PH length=60 units=ft
New	Line.OH_261535_0_4	bus1=DEV_261606_TSF_0.1	bus2=DEV_261606_0_4.1	Phases=1	linecode=4/0_1PH length=60 units=ft
New	Line.OH_261535_0_5	bus1=DEV_261606_TSF_0.1	bus2=DEV_261606_0_5.1	Phases=1	linecode=4/0_1PH length=60 units=ft
New	Line.OH_261573_1_1	bus1=DEV_261608_TSF_1.2	bus2=DEV_261608_1_1.2	Phases=1	linecode=4/0_1PH length=60 units=ft
New	Line.OH_261573_1_2	bus1=DEV_261608_TSF_1.2	bus2=DEV_261608_1_2.2	Phases=1	linecode=4/0_1PH length=60 units=ft
New	Line.OH_261573_2_1 bus1=DEV_261608_TSF_2.3	bus2=DEV_261608_2_1.3	Phases=1	linecode=4/0_1PH length=60 units=ft
New	Line.OH_261573_2_2	bus1=DEV_261608_TSF_2.3	bus2=DEV_261608_2_2.3	Phases=1	linecode=4/0_1PH length=60 units=ft
New	Line.OH_261576_1_1	bus1=NODE_609861_TSF_1.1	bus2=NODE_609861_1_1.1	Phases=1	linecode=4/0_1PH length=60 units=ft
New	Line.OH_261576_1_2	bus1=NODE_609861_TSF_1.1	bus2=NODE_609861_1_2.1	Phases=1	linecode=4/0_1PH length=60 units=ft
New	Line.OH_261576_1_3	bus1=NODE_609861_TSF_1.1	bus2=NODE_609861_1_3.1	Phases=1	linecode=4/0_1PH length=60 units=ft
New	Line.OH_261576_2_1 bus1=NODE_609861_TSF_2.3	bus2=NODE_609861_2_1.3	Phases=1	linecode=4/0_1PH length=60 units=ft
New	Line.OH_261576_2_2	bus1=NODE_609861_TSF_2.3	bus2=NODE_609861_2_2.3	Phases=1	linecode=4/0_1PH length=60 units=ft
New	Line.OH_261576_2_3	bus1=NODE_609861_TSF_2.3	bus2=NODE_609861_2_3.3	Phases=1	linecode=4/0_1PH length=60 units=ft
New	Line.OH_261579_1_1	bus1=NODE_609855_TSF_1.1	bus2=NODE_609855_1_1.1	Phases=1	linecode=4/0_1PH length=60 units=ft
New	Line.OH_261579_1_2	bus1=NODE_609855_TSF_1.1	bus2=NODE_609855_1_2.1	Phases=1	linecode=4/0_1PH length=60 units=ft
New	Line.OH_261579_2_1 bus1=NODE_609855_TSF_2.3	bus2=NODE_609855_2_1.3	Phases=1	linecode=4/0_1PH length=60 units=ft
New	Line.OH_261579_2_2	bus1=NODE_609855_TSF_2.3	bus2=NODE_609855_2_2.3	Phases=1	linecode=4/0_1PH length=60 units=ft
New	Line.OH_261584_1_1	bus1=DEV_261585_TSF_1.1	bus2=DEV_261585_1_1.1	Phases=1	linecode=4/0_1PH length=60 units=ft
New	Line.OH_261584_1_2	bus1=DEV_261585_TSF_1.1	bus2=DEV_261585_1_2.1	Phases=1	linecode=4/0_1PH length=60 units=ft
New	Line.OH_261584_1_3	bus1=DEV_261585_TSF_1.1	bus2=DEV_261585_1_3.1	Phases=1	linecode=4/0_1PH length=60 units=ft
New	Line.OH_261584_1_4	bus1=DEV_261585_TSF_1.1	bus2=DEV_261585_1_4.1	Phases=1	linecode=4/0_1PH length=60 units=ft
New	Line.OH_261584_2_1 bus1=DEV_261585_TSF_2.3	bus2=DEV_261585_2_1.3	Phases=1	linecode=4/0_1PH length=60 units=ft
New	Line.OH_261584_2_2	bus1=DEV_261585_TSF_2.3	bus2=DEV_261585_2_2.3	Phases=1	linecode=4/0_1PH length=60 units=ft
New	Line.OH_261584_2_3	bus1=DEV_261585_TSF_2.3	bus2=DEV_261585_2_3.3	Phases=1	linecode=4/0_1PH length=60 units=ft
New	Line.OH_261584_2_4	bus1=DEV_261585_TSF_2.3	bus2=DEV_261585_2_4.3	Phases=1	linecode=4/0_1PH length=60 units=ft
New	Line.OH_261589_1_1	bus1=DEV_261611_TSF_1.2	bus2=DEV_261611_1_1.2	Phases=1	linecode=4/0_1PH length=60 units=ft
New	Line.OH_261589_1_2	bus1=DEV_261611_TSF_1.2	bus2=DEV_261611_1_2.2	Phases=1	linecode=4/0_1PH length=60 units=ft
New	Line.OH_261589_1_3	bus1=DEV_261611_TSF_1.2	bus2=DEV_261611_1_3.2	Phases=1	linecode=4/0_1PH length=60 units=ft
New	Line.OH_261589_2_1 bus1=DEV_261611_TSF_2.3	bus2=DEV_261611_2_1.3	Phases=1	linecode=4/0_1PH length=60 units=ft
New	Line.OH_261589_2_2	bus1=DEV_261611_TSF_2.3	bus2=DEV_261611_2_2.3	Phases=1	linecode=4/0_1PH length=60 units=ft
New	Line.OH_261589_2_3	bus1=DEV_261611_TSF_2.3	bus2=DEV_261611_2_3.3	Phases=1	linecode=4/0_1PH length=60 units=ft
New	Line.OH_261592_1_1	bus1=DEV_261610_TSF_1.1	bus2=DEV_261610_1_1.1	Phases=1	linecode=4/0_1PH length=60 units=ft
New	Line.OH_261592_1_2	bus1=DEV_261610_TSF_1.1	bus2=DEV_261610_1_2.1	Phases=1	linecode=4/0_1PH length=60 units=ft
New	Line.OH_261592_1_3	bus1=DEV_261610_TSF_1.1	bus2=DEV_261610_1_3.1	Phases=1	linecode=4/0_1PH length=60 units=ft
New	Line.OH_261592_2_1 bus1=DEV_261610_TSF_2.3	bus2=DEV_261610_2_1.3	Phases=1	linecode=4/0_1PH length=60 units=ft
New	Line.OH_261592_2_2	bus1=DEV_261610_TSF_2.3	bus2=DEV_261610_2_2.3	Phases=1	linecode=4/0_1PH length=60 units=ft
New	Line.OH_261592_2_3	bus1=DEV_261610_TSF_2.3	bus2=DEV_261610_2_3.3	Phases=1	linecode=4/0_1PH length=60 units=ft
New	Line.OH_261596_1_1	bus1=DEV_261619_TSF_1.1	bus2=DEV_261619_1_1.1	Phases=1	linecode=4/0_1PH length=60 units=ft
New	Line.OH_261596_2_1 bus1=DEV_261619_TSF_2.3	bus2=DEV_261619_2_1.3	Phases=1	linecode=4/0_1PH length=60 units=ft
New	Line.OH_261604_1_1	bus1=DEV_261599_TSF_1.1	bus2=DEV_261599_1_1.1	Phases=1	linecode=4/0_1PH length=60 units=ft
New	Line.OH_261604_1_2	bus1=DEV_261599_TSF_1.1	bus2=DEV_261599_1_2.1	Phases=1	linecode=4/0_1PH length=60 units=ft
New	Line.OH_261604_1_3	bus1=DEV_261599_TSF_1.1	bus2=DEV_261599_1_3.1	Phases=1	linecode=4/0_1PH length=60 units=ft
New	Line.OH_261604_1_4	bus1=DEV_261599_TSF_1.1	bus2=DEV_261599_1_4.1	Phases=1	linecode=4/0_1PH length=60 units=ft
New	Line.OH_261604_2_1 bus1=DEV_261599_TSF_2.3	bus2=DEV_261599_2_1.3	Phases=1	linecode=4/0_1PH length=60 units=ft
New	Line.OH_261604_2_2	bus1=DEV_261599_TSF_2.3	bus2=DEV_261599_2_2.3	Phases=1	linecode=4/0_1PH length=60 units=ft
New	Line.OH_261604_2_3	bus1=DEV_261599_TSF_2.3	bus2=DEV_261599_2_3.3	Phases=1	linecode=4/0_1PH length=60 units=ft
New	Line.OH_261604_2_4	bus1=DEV_261599_TSF_2.3	bus2=DEV_261599_2_4.3	Phases=1	linecode=4/0_1PH length=60 units=ft
New	Line.OH_261663_0_1	bus1=DEV_261702_TSF_0.1	bus2=DEV_261702_0_1.1	Phases=1	linecode=4/0_1PH length=60 units=ft
New	Line.OH_261663_0_2	bus1=DEV_261702_TSF_0.1	bus2=DEV_261702_0_2.1	Phases=1	linecode=4/0_1PH length=60 units=ft
New	Line.OH_261663_0_3	bus1=DEV_261702_TSF_0.1	bus2=DEV_261702_0_3.1	Phases=1	linecode=4/0_1PH length=60 units=ft
New	Line.OH_261663_0_4	bus1=DEV_261702_TSF_0.1	bus2=DEV_261702_0_4.1	Phases=1	linecode=4/0_1PH length=60 units=ft
New	Line.OH_261663_0_5	bus1=DEV_261702_TSF_0.1	bus2=DEV_261702_0_5.1	Phases=1	linecode=4/0_1PH length=60 units=ft
New	Line.OH_261663_0_6	bus1=DEV_261702_TSF_0.1	bus2=DEV_261702_0_6.1	Phases=1	linecode=4/0_1PH length=60 units=ft
New	Line.OH_261664_0_1	bus1=DEV_261701_TSF_0.2	bus2=DEV_261701_0_1.2	Phases=1	linecode=4/0_1PH length=60 units=ft
New	Line.OH_261664_0_2	bus1=DEV_261701_TSF_0.2	bus2=DEV_261701_0_2.2	Phases=1	linecode=4/0_1PH length=60 units=ft
New	Line.OH_261666_0_1	bus1=NODE_11021904_TSF_0.3	bus2=NODE_11021904_0_1.3	Phases=1	linecode=4/0_1PH length=60 units=ft
New	Line.OH_261666_0_2	bus1=NODE_11021904_TSF_0.3	bus2=NODE_11021904_0_2.3	Phases=1	linecode=4/0_1PH length=60 units=ft
New	Line.OH_261666_0_3	bus1=NODE_11021904_TSF_0.3	bus2=NODE_11021904_0_3.3	Phases=1	linecode=4/0_1PH length=60 units=ft
New	Line.OH_261666_0_4	bus1=NODE_11021904_TSF_0.3	bus2=NODE_11021904_0_4.3	Phases=1	linecode=4/0_1PH length=60 units=ft
New	Line.OH_261666_0_5	bus1=NODE_11021904_TSF_0.3	bus2=NODE_11021904_0_5.3	Phases=1	linecode=4/0_1PH length=60 units=ft
New	Line.OH_261666_0_6	bus1=NODE_11021904_TSF_0.3	bus2=NODE_11021904_0_6.3	Phases=1	linecode=4/0_1PH length=60 units=ft
New	Line.OH_261666_0_7	bus1=NODE_11021904_TSF_0.3	bus2=NODE_11021904_0_7.3	Phases=1	linecode=4/0_1PH length=60 units=ft
New	Line.OH_261691_1_1	bus1=DEV_261698_TSF_1.2	bus2=DEV_261698_1_1.2	Phases=1	linecode=4/0_1PH length=60 units=ft
New	Line.OH_261691_1_2	bus1=DEV_261698_TSF_1.2	bus2=DEV_261698_1_2.2	Phases=1	linecode=4/0_1PH length=60 units=ft
New	Line.OH_261691_2_1 bus1=DEV_261698_TSF_2.3	bus2=DEV_261698_2_1.3	Phases=1	linecode=4/0_1PH length=60 units=ft
New	Line.OH_261691_2_2	bus1=DEV_261698_TSF_2.3	bus2=DEV_261698_2_2.3	Phases=1	linecode=4/0_1PH length=60 units=ft
New	Line.OH_261709_1_1	bus1=NODE_619119_TSF_1.1	bus2=NODE_619119_1_1.1	Phases=1	linecode=4/0_1PH length=60 units=ft
New	Line.OH_261709_2_1 bus1=NODE_619119_TSF_2.2	bus2=NODE_619119_2_1.2	Phases=1	linecode=4/0_1PH length=60 units=ft
New	Line.OH_261747_0_1	bus1=DEV_261736_TSF_0.1	bus2=DEV_261736_0_1.1	Phases=1	linecode=4/0_1PH length=60 units=ft
New	Line.OH_261747_0_2	bus1=DEV_261736_TSF_0.1	bus2=DEV_261736_0_2.1	Phases=1	linecode=4/0_1PH length=60 units=ft
New	Line.OH_261847_0_1	bus1=DEV_261851_TSF_0.1	bus2=DEV_261851_0_1.1	Phases=1	linecode=4/0_1PH length=60 units=ft
New	Line.OH_261847_0_2	bus1=DEV_261851_TSF_0.1	bus2=DEV_261851_0_2.1	Phases=1	linecode=4/0_1PH length=60 units=ft
New	Line.OH_261847_0_3	bus1=DEV_261851_TSF_0.1	bus2=DEV_261851_0_3.1	Phases=1	linecode=4/0_1PH length=60 units=ft
New	Line.OH_261847_0_4	bus1=DEV_261851_TSF_0.1	bus2=DEV_261851_0_4.1	Phases=1	linecode=4/0_1PH length=60 units=ft
New	Line.OH_261847_0_5	bus1=DEV_261851_TSF_0.1	bus2=DEV_261851_0_5.1	Phases=1	linecode=4/0_1PH length=60 units=ft
New	Line.OH_262646_1_1	bus1=NODE_11021965_TSF_1.2	bus2=NODE_11021965_1_1.2	Phases=1	linecode=4/0_1PH length=60 units=ft
New	Line.OH_262646_1_2	bus1=NODE_11021965_TSF_1.2	bus2=NODE_11021965_1_2.2	Phases=1	linecode=4/0_1PH length=60 units=ft
New	Line.OH_262646_1_3	bus1=NODE_11021965_TSF_1.2	bus2=NODE_11021965_1_3.2	Phases=1	linecode=4/0_1PH length=60 units=ft
New	Line.OH_262646_1_4	bus1=NODE_11021965_TSF_1.2	bus2=NODE_11021965_1_4.2	Phases=1	linecode=4/0_1PH length=60 units=ft
New	Line.OH_262646_2_1 bus1=NODE_11021965_TSF_2.3	bus2=NODE_11021965_2_1.3	Phases=1	linecode=4/0_1PH length=60 units=ft
New	Line.OH_262646_2_2	bus1=NODE_11021965_TSF_2.3	bus2=NODE_11021965_2_2.3	Phases=1	linecode=4/0_1PH length=60 units=ft
New	Line.OH_262646_2_3	bus1=NODE_11021965_TSF_2.3	bus2=NODE_11021965_2_3.3	Phases=1	linecode=4/0_1PH length=60 units=ft
New	Line.OH_262646_2_4	bus1=NODE_11021965_TSF_2.3	bus2=NODE_11021965_2_4.3	Phases=1	linecode=4/0_1PH length=60 units=ft
New	Line.OH_262648_1_1	bus1=NODE_619037_TSF_1.1	bus2=NODE_619037_1_1.1	Phases=1	linecode=4/0_1PH length=60 units=ft
New	Line.OH_262648_2_1 bus1=NODE_619037_TSF_2.3	bus2=NODE_619037_2_1.3	Phases=1	linecode=4/0_1PH length=60 units=ft
New	Line.OH_262654_1_1	bus1=DEV_262689_TSF_1.1	bus2=DEV_262689_1_1.1	Phases=1	linecode=4/0_1PH length=60 units=ft
New	Line.OH_262654_2_1 bus1=DEV_262689_TSF_2.3	bus2=DEV_262689_2_1.3	Phases=1	linecode=4/0_1PH length=60 units=ft
New	Line.OH_262655_1_1	bus1=DEV_262688_TSF_1.1	bus2=DEV_262688_1_1.1	Phases=1	linecode=4/0_1PH length=60 units=ft
New	Line.OH_262655_1_2	bus1=DEV_262688_TSF_1.1	bus2=DEV_262688_1_2.1	Phases=1	linecode=4/0_1PH length=60 units=ft
New	Line.OH_262655_1_3	bus1=DEV_262688_TSF_1.1	bus2=DEV_262688_1_3.1	Phases=1	linecode=4/0_1PH length=60 units=ft
New	Line.OH_262655_2_1 bus1=DEV_262688_TSF_2.3	bus2=DEV_262688_2_1.3	Phases=1	linecode=4/0_1PH length=60 units=ft
New	Line.OH_262655_2_2	bus1=DEV_262688_TSF_2.3	bus2=DEV_262688_2_2.3	Phases=1	linecode=4/0_1PH length=60 units=ft
New	Line.OH_262655_2_3	bus1=DEV_262688_TSF_2.3	bus2=DEV_262688_2_3.3	Phases=1	linecode=4/0_1PH length=60 units=ft
New	Line.OH_262657_1_1	bus1=DEV_51117467_TSF_1.1	bus2=DEV_51117467_1_1.1	Phases=1	linecode=4/0_1PH length=60 units=ft
New	Line.OH_262657_2_1 bus1=DEV_51117467_TSF_2.3	bus2=DEV_51117467_2_1.3	Phases=1	linecode=4/0_1PH length=60 units=ft
New	Line.OH_262662_1_1	bus1=NODE_11021961_TSF_1.1	bus2=NODE_11021961_1_1.1	Phases=1	linecode=4/0_1PH length=60 units=ft
New	Line.OH_262662_2_1 bus1=NODE_11021961_TSF_2.3	bus2=NODE_11021961_2_1.3	Phases=1	linecode=4/0_1PH length=60 units=ft
New	Line.OH_262673_0_1	bus1=DEV_51079464_TSF_0.3	bus2=DEV_51079464_0_1.3	Phases=1	linecode=4/0_1PH length=60 units=ft
New	Line.OH_262673_0_2	bus1=DEV_51079464_TSF_0.3	bus2=DEV_51079464_0_2.3	Phases=1	linecode=4/0_1PH length=60 units=ft
New	Line.OH_262673_0_3	bus1=DEV_51079464_TSF_0.3	bus2=DEV_51079464_0_3.3	Phases=1	linecode=4/0_1PH length=60 units=ft
New	Line.OH_262673_0_4	bus1=DEV_51079464_TSF_0.3	bus2=DEV_51079464_0_4.3	Phases=1	linecode=4/0_1PH length=60 units=ft
New	Line.OH_262752_0_1	bus1=DEV_51071988_TSF_0.2	bus2=DEV_51071988_0_1.2	Phases=1	linecode=4/0_1PH length=60 units=ft
New	Line.OH_262864_1_1	bus1=NODE_11021955_TSF_1.1	bus2=NODE_11021955_1_1.1	Phases=1	linecode=4/0_1PH length=60 units=ft
New	Line.OH_262864_2_1 bus1=NODE_11021955_TSF_2.3	bus2=NODE_11021955_2_1.3	Phases=1	linecode=4/0_1PH length=60 units=ft
New	Line.OH_262868_0_1	bus1=NODE_11021952_TSF_0.1	bus2=NODE_11021952_0_1.1	Phases=1	linecode=4/0_1PH length=60 units=ft
New	Line.OH_262868_0_2	bus1=NODE_11021952_TSF_0.1	bus2=NODE_11021952_0_2.1	Phases=1	linecode=4/0_1PH length=60 units=ft
New	Line.OH_262870_1_1	bus1=NODE_618828_TSF_1.1	bus2=NODE_618828_1_1.1	Phases=1	linecode=4/0_1PH length=60 units=ft
New	Line.OH_262870_2_1 bus1=NODE_618828_TSF_2.2	bus2=NODE_618828_2_1.2	Phases=1	linecode=4/0_1PH length=60 units=ft
New	Line.OH_262873_1_1	bus1=NODE_618864_TSF_1.1	bus2=NODE_618864_1_1.1	Phases=1	linecode=4/0_1PH length=60 units=ft
New	Line.OH_262873_1_2	bus1=NODE_618864_TSF_1.1	bus2=NODE_618864_1_2.1	Phases=1	linecode=4/0_1PH length=60 units=ft
New	Line.OH_262873_2_1 bus1=NODE_618864_TSF_2.3	bus2=NODE_618864_2_1.3	Phases=1	linecode=4/0_1PH length=60 units=ft
New	Line.OH_262873_2_2	bus1=NODE_618864_TSF_2.3	bus2=NODE_618864_2_2.3	Phases=1	linecode=4/0_1PH length=60 units=ft
New	Line.OH_262876_1_1	bus1=DEV_262877_TSF_1.1	bus2=DEV_262877_1_1.1	Phases=1	linecode=4/0_1PH length=60 units=ft
New	Line.OH_262876_1_2	bus1=DEV_262877_TSF_1.1	bus2=DEV_262877_1_2.1	Phases=1	linecode=4/0_1PH length=60 units=ft
New	Line.OH_262876_1_3	bus1=DEV_262877_TSF_1.1	bus2=DEV_262877_1_3.1	Phases=1	linecode=4/0_1PH length=60 units=ft
New	Line.OH_262876_1_4	bus1=DEV_262877_TSF_1.1	bus2=DEV_262877_1_4.1	Phases=1	linecode=4/0_1PH length=60 units=ft
New	Line.OH_262876_1_5	bus1=DEV_262877_TSF_1.1	bus2=DEV_262877_1_5.1	Phases=1	linecode=4/0_1PH length=60 units=ft
New	Line.OH_262876_1_6	bus1=DEV_262877_TSF_1.1	bus2=DEV_262877_1_6.1	Phases=1	linecode=4/0_1PH length=60 units=ft
New	Line.OH_262876_1_7	bus1=DEV_262877_TSF_1.1	bus2=DEV_262877_1_7.1	Phases=1	linecode=4/0_1PH length=60 units=ft
New	Line.OH_262876_2_1 bus1=DEV_262877_TSF_2.3	bus2=DEV_262877_2_1.3	Phases=1	linecode=4/0_1PH length=60 units=ft
New	Line.OH_262876_2_2	bus1=DEV_262877_TSF_2.3	bus2=DEV_262877_2_2.3	Phases=1	linecode=4/0_1PH length=60 units=ft
New	Line.OH_262876_2_3	bus1=DEV_262877_TSF_2.3	bus2=DEV_262877_2_3.3	Phases=1	linecode=4/0_1PH length=60 units=ft
New	Line.OH_262876_2_4	bus1=DEV_262877_TSF_2.3	bus2=DEV_262877_2_4.3	Phases=1	linecode=4/0_1PH length=60 units=ft
New	Line.OH_262876_2_5	bus1=DEV_262877_TSF_2.3	bus2=DEV_262877_2_5.3	Phases=1	linecode=4/0_1PH length=60 units=ft
New	Line.OH_262876_2_6	bus1=DEV_262877_TSF_2.3	bus2=DEV_262877_2_6.3	Phases=1	linecode=4/0_1PH length=60 units=ft
New	Line.OH_262876_2_7	bus1=DEV_262877_TSF_2.3	bus2=DEV_262877_2_7.3	Phases=1	linecode=4/0_1PH length=60 units=ft
New	Line.OH_262881_1_1	bus1=DEV_262883_TSF_1.1	bus2=DEV_262883_1_1.1	Phases=1	linecode=4/0_1PH length=60 units=ft
New	Line.OH_262881_1_2	bus1=DEV_262883_TSF_1.1	bus2=DEV_262883_1_2.1	Phases=1	linecode=4/0_1PH length=60 units=ft
New	Line.OH_262881_1_3	bus1=DEV_262883_TSF_1.1	bus2=DEV_262883_1_3.1	Phases=1	linecode=4/0_1PH length=60 units=ft
New	Line.OH_262881_2_1 bus1=DEV_262883_TSF_2.2	bus2=DEV_262883_2_1.2	Phases=1	linecode=4/0_1PH length=60 units=ft
New	Line.OH_262881_2_2	bus1=DEV_262883_TSF_2.2	bus2=DEV_262883_2_2.2	Phases=1	linecode=4/0_1PH length=60 units=ft
New	Line.OH_262881_2_3	bus1=DEV_262883_TSF_2.2	bus2=DEV_262883_2_3.2	Phases=1	linecode=4/0_1PH length=60 units=ft
New	Line.OH_262888_0_1	bus1=DEV_262891_TSF_0.3	bus2=DEV_262891_0_1.3	Phases=1	linecode=4/0_1PH length=60 units=ft
New	Line.OH_262888_0_2	bus1=DEV_262891_TSF_0.3	bus2=DEV_262891_0_2.3	Phases=1	linecode=4/0_1PH length=60 units=ft
New	Line.OH_262888_0_3	bus1=DEV_262891_TSF_0.3	bus2=DEV_262891_0_3.3	Phases=1	linecode=4/0_1PH length=60 units=ft
New	Line.OH_262978_1_1	bus1=DEV_263023_TSF_1.1	bus2=DEV_263023_1_1.1	Phases=1	linecode=4/0_1PH length=60 units=ft
New	Line.OH_262978_1_2	bus1=DEV_263023_TSF_1.1	bus2=DEV_263023_1_2.1	Phases=1	linecode=4/0_1PH length=60 units=ft
New	Line.OH_262978_1_3	bus1=DEV_263023_TSF_1.1	bus2=DEV_263023_1_3.1	Phases=1	linecode=4/0_1PH length=60 units=ft
New	Line.OH_262978_1_4	bus1=DEV_263023_TSF_1.1	bus2=DEV_263023_1_4.1	Phases=1	linecode=4/0_1PH length=60 units=ft
New	Line.OH_262978_1_5	bus1=DEV_263023_TSF_1.1	bus2=DEV_263023_1_5.1	Phases=1	linecode=4/0_1PH length=60 units=ft
New	Line.OH_262978_1_6	bus1=DEV_263023_TSF_1.1	bus2=DEV_263023_1_6.1	Phases=1	linecode=4/0_1PH length=60 units=ft
New	Line.OH_262978_1_7	bus1=DEV_263023_TSF_1.1	bus2=DEV_263023_1_7.1	Phases=1	linecode=4/0_1PH length=60 units=ft
New	Line.OH_262978_1_8	bus1=DEV_263023_TSF_1.1	bus2=DEV_263023_1_8.1	Phases=1	linecode=4/0_1PH length=60 units=ft
New	Line.OH_262978_2_1 bus1=DEV_263023_TSF_2.3	bus2=DEV_263023_2_1.3	Phases=1	linecode=4/0_1PH length=60 units=ft
New	Line.OH_262978_2_2	bus1=DEV_263023_TSF_2.3	bus2=DEV_263023_2_2.3	Phases=1	linecode=4/0_1PH length=60 units=ft
New	Line.OH_262978_2_3	bus1=DEV_263023_TSF_2.3	bus2=DEV_263023_2_3.3	Phases=1	linecode=4/0_1PH length=60 units=ft
...